<?xml version="1.0" encoding="UTF-8"?>

<!-- generated on 10/01/19 23:56:20 by Eclipse SUMO netedit Version 1.3.0
<configuration xmlns:xsi="http://www.w3.org/2001/XMLSchema-instance" xsi:noNamespaceSchemaLocation="http://sumo.dlr.de/xsd/netconvertConfiguration.xsd">

    <input>
        <sumo-net-file value="C:\____vri\_SUMOnetwerken\G5\G5j.net.xml"/>
    </input>

    <output>
        <output-file value="C:\____vri\_SUMOnetwerken\G5\G5j.net.xml"/>
    </output>

    <processing>
        <geometry.max-grade.fix value="false"/>
        <offset.disable-normalization value="true"/>
        <opposites.guess.fix-lengths value="true"/>
        <lefthand value="false"/>
    </processing>

    <junctions>
        <no-turnarounds value="true"/>
        <junctions.corner-detail value="5"/>
        <junctions.limit-turn-speed value="5.5"/>
        <rectangular-lane-cut value="false"/>
    </junctions>

    <pedestrian>
        <walkingareas value="false"/>
    </pedestrian>

    <netedit>
        <additional-files value="C:\____vri\_SUMOnetwerken\G5\G5.add.xml"/>
    </netedit>

</configuration>
-->

<additional xmlns:xsi="http://www.w3.org/2001/XMLSchema-instance" xsi:noNamespaceSchemaLocation="http://sumo.dlr.de/xsd/additional_file.xsd">
    <e2Detector id="02_1a" lane="95783591#0.35_0" pos="20.83" length="1.00" freq="900.00" file="NUL"/>
    <e2Detector id="02_1b" lane="95783591#0.35_1" pos="20.83" length="1.00" freq="900.00" file="NUL"/>
    <e2Detector id="02_2a" lane="95783591#0.35_0" pos="1.76" length="10.00" freq="900.00" file="NUL"/>
    <e2Detector id="02_2b" lane="95783591#0.35_1" pos="1.62" length="10.00" freq="900.00" file="NUL"/>
    <e2Detector id="02_3a" lane="95783591#0_0" pos="2.94" length="15.00" freq="900.00" file="NUL"/>
    <e2Detector id="02_3b" lane="95783591#0_1" pos="3.01" length="15.00" freq="900.00" file="NUL"/>
    <e2Detector id="02_4a" lane="7339491#2_0" pos="37.83" length="5.00" freq="900.00" file="NUL"/>
    <e2Detector id="02_4b" lane="7339491#2_1" pos="37.88" length="5.00" freq="900.00" file="NUL"/>
    <e2Detector id="03_1" lane="gneE27_0" pos="20.96" length="1.00" freq="900.00" file="NUL"/>
    <e2Detector id="03_2" lane="gneE27_0" pos="1.98" length="10.00" freq="900.00" file="NUL"/>
    <e2Detector id="05_1" lane="7339060#3_0" pos="21.21" length="1.00" freq="900.00" file="NUL"/>
    <e2Detector id="05_2" lane="7339060#3_0" pos="3.28" length="10.00" freq="900.00" file="NUL"/>
    <e2Detector id="08_1a" lane="273059106.163_0" pos="49.51" length="1.00" freq="900.00" file="NUL"/>
    <e2Detector id="08_1b" lane="273059106.163_1" pos="49.72" length="1.00" freq="900.00" file="NUL"/>
    <e2Detector id="08_2a" lane="273059106.163_0" pos="30.87" length="10.00" freq="900.00" file="NUL"/>
    <e2Detector id="08_2b" lane="273059106.163_1" pos="30.98" length="10.00" freq="900.00" file="NUL"/>
    <e2Detector id="08_3a" lane="273059106.163_0" pos="5.50" length="15.00" freq="900.00" file="NUL"/>
    <e2Detector id="08_3b" lane="273059106.163_1" pos="5.63" length="15.00" freq="900.00" file="NUL"/>
    <e2Detector id="08_4a" lane="273059106_0" pos="196.72" length="1.00" freq="900.00" file="NUL"/>
    <e2Detector id="08_4b" lane="273059106_1" pos="196.94" length="1.00" freq="900.00" file="NUL"/>
    <e2Detector id="09_1" lane="gneE7_0" pos="43.70" length="1.00" freq="900.00" file="NUL"/>
    <e2Detector id="09_2" lane="gneE7_0" pos="24.85" length="10.00" freq="900.00" file="NUL"/>
    <e2Detector id="09_3" lane="gneE7_0" pos="0.30" length="15.00" freq="900.00" file="NUL"/>
    <e2Detector id="11_1" lane="-7339521#1_0" pos="45.78" length="1.00" freq="900.00" file="NUL" friendlyPos="1"/>
    <e2Detector id="11_2" lane="-7339521#1_0" pos="27.07" length="10.00" freq="900.00" file="NUL" friendlyPos="1"/>
    <e2Detector id="11_3" lane="-7339521#1_0" pos="2.00" length="15.00" freq="900.00" file="NUL"/>
    <e2Detector id="11_4" lane="-7339521#2_0" pos="20.65" length="1.00" freq="900.00" file="NUL"/>
    <e2Detector id="22_1" lane="245645508#2_0" pos="1.79" length="1.00" freq="900.00" file="NUL"/>
    <e2Detector id="24_1" lane="237278783#1_0" pos="34.44" length="1.00" freq="900.00" file="NUL"/>
    <e2Detector id="24_2" lane="237278783#1_0" pos="14.43" length="1.00" freq="900.00" file="NUL"/>
    <e2Detector id="24_3" lane="237278783#1_0" pos="13.18" length="1.00" freq="900.00" file="NUL"/>
    <e2Detector id="26_1" lane="gneE10_0" pos="49.27" length="1.00" freq="900.00" file="NUL"/>
    <e2Detector id="26_2" lane="gneE10_0" pos="30.82" length="1.00" freq="900.00" file="NUL"/>
    <e2Detector id="28_1" lane="95782304#3_0" pos="3.41" length="1.00" freq="900.00" file="NUL" vTypes="NUL"/>
    <e2Detector id="28_2" lane="95782304#2_0" pos="12.66" length="1.00" freq="900.00" file="NUL"/>
    <e2Detector id="31a" lane="gneE16_0" pos="7.23" length="1.00" freq="900.00" file="NUL" vTypes="NUL"/>
    <e2Detector id="31b" lane="gneE18_0" pos="0.62" length="1.00" freq="900.00" file="NUL" vTypes="NUL"/>
    <e2Detector id="32a" lane="gneE17_0" pos="9.65" length="1.00" freq="900.00" file="NUL" vTypes="NUL"/>
    <e2Detector id="32b" lane="-gneE18_0" pos="0.42" length="1.00" freq="900.00" file="NUL" vTypes="NUL"/>
    <e2Detector id="33a" lane="-gneE22_0" pos="10.55" length="1.00" freq="900.00" file="NUL" vTypes="NUL"/>
    <e2Detector id="33b" lane="gneE21_0" pos="1.94" length="1.00" freq="900.00" file="NUL" vTypes="NUL"/>
    <e2Detector id="34a" lane="gneE20_0" pos="11.82" length="1.00" freq="900.00" file="NUL" vTypes="NUL"/>
    <e2Detector id="34b" lane="-gneE21_0" pos="1.55" length="1.00" freq="900.00" file="NUL" vTypes="NUL"/>
    <e2Detector id="38a" lane="-gneE24_0" pos="11.58" length="1.00" freq="900.00" file="NUL"/>
    <e2Detector id="38b" lane="gneE23_0" pos="8.79" length="1.00" freq="900.00" file="NUL"/>
    <e2Detector id="61_1" lane="gneE11_0" pos="19.24" length="1.00" freq="900.00" file="NUL"/>
    <e2Detector id="61_2" lane="gneE11_0" pos="0.21" length="10.00" freq="900.00" file="NUL"/>
    <e2Detector id="62_1a" lane="7339496#0.5_0" pos="26.72" length="1.00" freq="900.00" file="NUL"/>
    <e2Detector id="62_1b" lane="7339496#0.5_1" pos="26.82" length="1.00" freq="900.00" file="NUL"/>
    <e2Detector id="62_2a" lane="7339496#0.5_0" pos="2.79" length="10.00" freq="900.00" file="NUL"/>
    <e2Detector id="62_2b" lane="7339496#0.5_1" pos="2.78" length="10.00" freq="900.00" file="NUL"/>
    <e2Detector id="67_1" lane="gneE9_0" pos="18.95" length="1.00" freq="900.00" file="NUL"/>
    <e2Detector id="67_2" lane="gneE9_0" pos="4.18" length="10.00" freq="900.00" file="NUL"/>
    <e2Detector id="68_1a" lane="83133576.3_0" pos="24.75" length="1.00" freq="900.00" file="NUL"/>
    <e2Detector id="68_1b" lane="83133576.3_1" pos="25.17" length="1.00" freq="900.00" file="NUL"/>
    <e2Detector id="68_2a" lane="83133576.3_0" pos="1.29" length="10.00" freq="900.00" file="NUL"/>
    <e2Detector id="68_2b" lane="83133576.3_1" pos="1.16" length="10.00" freq="900.00" file="NUL"/>
    <e2Detector id="82_1" lane="95782305#0_0" pos="0.05" length="1.00" freq="900.00" file="NUL"/>
    <e2Detector id="84_1" lane="-237278783#5_0" pos="0.55" length="1.00" freq="900.00" file="NUL"/>
    <e2Detector id="86_1" lane="gneE26_0" pos="1.02" length="1.00" freq="900.00" file="NUL"/>
    <taz id="31a" shape="251.38,392.11 255.00,392.53 255.58,388.26 252.15,387.91 251.38,392.11" color="0,0,255,150">
        <tazSource id="-gneE16" weight="0.00"/>
        <tazSource id="gneE16" weight="1.00"/>
        <tazSink id="-gneE16" weight="1.00"/>
        <tazSink id="gneE16" weight="0.00"/>
    </taz>
    <taz id="32a" shape="282.96,404.07 286.46,403.74 286.04,401.04 282.46,401.58 282.96,404.07" color="0,0,255,150">
        <tazSource id="gneE17" weight="1.00"/>
        <tazSource id="-gneE17" weight="0.00"/>
        <tazSink id="gneE17" weight="0.00"/>
        <tazSink id="-gneE17" weight="1.00"/>
    </taz>
    <taz id="33a" shape="291.16,398.23 293.43,395.69 295.90,398.05 293.86,400.35 291.16,398.23" color="0,0,255,150">
        <tazSource id="-gneE22" weight="1.00"/>
        <tazSource id="gneE22" weight="0.00"/>
        <tazSink id="-gneE22" weight="0.00"/>
        <tazSink id="gneE22" weight="1.00"/>
    </taz>
    <taz id="34a" shape="293.01,364.67 296.95,365.50 297.45,361.70 293.57,361.13 293.01,364.67" color="0,0,255,150">
        <tazSource id="-gneE20" weight="0.00"/>
        <tazSource id="gneE20" weight="1.00"/>
        <tazSink id="-gneE20" weight="1.00"/>
        <tazSink id="gneE20" weight="0.00"/>
    </taz>
    <taz id="38a" shape="264.74,313.13 268.59,313.64 269.01,310.54 265.28,310.15 264.74,313.13" color="0,0,255,150">
        <tazSource id="-gneE23" weight="0.00"/>
        <tazSource id="gneE23" weight="1.00"/>
        <tazSink id="-gneE23" weight="1.00"/>
        <tazSink id="gneE23" weight="0.00"/>
    </taz>
    <taz id="38b" shape="260.22,348.75 263.37,349.14 263.79,346.23 260.53,345.88 260.22,348.75" color="0,0,255,150">
        <tazSource id="-gneE24" weight="1.00"/>
        <tazSource id="gneE24" weight="0.00"/>
        <tazSink id="-gneE24" weight="0.00"/>
        <tazSink id="gneE24" weight="1.00"/>
    </taz>
    <taz id="noord" shape="222.90,578.64 238.17,582.16 239.16,576.88 223.34,573.26 222.90,578.64" color="0,0,255,150">
        <tazSource id="7339491#0.194" weight="1.00"/>
        <tazSource id="7339624#0" weight="0.00"/>
        <tazSink id="7339491#0.194" weight="0.00"/>
        <tazSink id="7339624#0" weight="1.00"/>
    </taz>
    <taz id="oost" shape="448.02,351.18 444.47,340.86 448.68,339.29 452.15,349.78 448.02,351.18" color="0,0,255,150">
        <tazSource id="-7337954#1" weight="0.00"/>
        <tazSource id="7337954#1" weight="1.00"/>
        <tazSink id="-7337954#1" weight="1.00"/>
        <tazSink id="7337954#1" weight="0.00"/>
    </taz>
    <taz id="west" shape="13.53,364.01 12.62,354.11 16.62,353.84 17.89,363.46 13.53,364.01" color="0,0,255,150">
        <tazSource id="7339521#3" weight="0.00"/>
        <tazSource id="-7339521#3" weight="1.00"/>
        <tazSink id="7339521#3" weight="1.00"/>
        <tazSink id="-7339521#3" weight="0.00"/>
    </taz>
    <taz id="zuid" shape="496.61,179.93 491.66,182.71 485.91,172.12 490.99,169.14 496.61,179.93" color="0,0,255,150">
        <tazSource id="273059106" weight="1.00"/>
        <tazSource id="7339557.8" weight="0.00"/>
        <tazSink id="273059106" weight="0.00"/>
        <tazSink id="7339557.8" weight="1.00"/>
    </taz>
    <taz id="zuidfts" shape="494.65,160.01 498.20,158.32 508.63,180.19 505.14,182.11 494.65,160.01" color="blue">
        <tazSource id="273059104#0" weight="1.00"/>
        <tazSource id="273059105" weight="0.00"/>
        <tazSink id="273059104#0" weight="0.00"/>
        <tazSink id="273059105" weight="1.00"/>
    </taz>
</additional>
