<?xml version="1.0" encoding="UTF-8"?>

<!-- generated on 10/01/19 23:09:00 by Eclipse SUMO netedit Version 1.3.0
<configuration xmlns:xsi="http://www.w3.org/2001/XMLSchema-instance" xsi:noNamespaceSchemaLocation="http://sumo.dlr.de/xsd/netconvertConfiguration.xsd">

    <input>
        <sumo-net-file value="C:\____vri\_SUMOnetwerken\G5\G5j.net.xml"/>
    </input>

    <output>
        <output-file value="C:\____vri\_SUMOnetwerken\G5\G5j.net.xml"/>
    </output>

    <processing>
        <geometry.max-grade.fix value="false"/>
        <offset.disable-normalization value="true"/>
        <opposites.guess.fix-lengths value="true"/>
        <lefthand value="false"/>
    </processing>

    <junctions>
        <no-turnarounds value="true"/>
        <junctions.corner-detail value="5"/>
        <junctions.limit-turn-speed value="5.5"/>
        <rectangular-lane-cut value="false"/>
    </junctions>

    <pedestrian>
        <walkingareas value="false"/>
    </pedestrian>

    <netedit>
        <additional-files value="C:\____vri\_SUMOnetwerken\G5\G5.add.xml"/>
    </netedit>

</configuration>
-->

<net version="1.3" junctionCornerDetail="5" limitTurnSpeed="5.50" xmlns:xsi="http://www.w3.org/2001/XMLSchema-instance" xsi:noNamespaceSchemaLocation="http://sumo.dlr.de/xsd/net_file.xsd">

    <location netOffset="-614822.58,-5738913.26" convBoundary="15.31,161.09,506.05,577.92" origBoundary="4.664897,51.789235,4.673177,51.796124" projParameter="+proj=utm +zone=31 +ellps=WGS84 +datum=WGS84 +units=m +no_defs"/>

    <type id="highway.bridleway" priority="1" numLanes="1" speed="2.78" allow="pedestrian" oneway="1" width="2.00"/>
    <type id="highway.bus_guideway" priority="1" numLanes="1" speed="27.78" allow="bus" oneway="1"/>
    <type id="highway.cycleway" priority="1" numLanes="1" speed="8.33" allow="bicycle" oneway="0" width="1.00"/>
    <type id="highway.footway" priority="1" numLanes="1" speed="2.78" allow="pedestrian" oneway="1" width="2.00"/>
    <type id="highway.ford" priority="1" numLanes="1" speed="2.78" allow="army" oneway="0"/>
    <type id="highway.living_street" priority="2" numLanes="1" speed="2.78" disallow="tram rail_urban rail rail_electric rail_fast ship" oneway="0"/>
    <type id="highway.motorway" priority="14" numLanes="2" speed="39.44" allow="private emergency authority army vip passenger hov taxi bus coach delivery truck trailer motorcycle evehicle custom1 custom2" oneway="1"/>
    <type id="highway.motorway_link" priority="9" numLanes="1" speed="22.22" allow="private emergency authority army vip passenger hov taxi bus coach delivery truck trailer motorcycle evehicle custom1 custom2" oneway="1"/>
    <type id="highway.path" priority="1" numLanes="1" speed="2.78" allow="pedestrian bicycle" oneway="1" width="2.00"/>
    <type id="highway.pedestrian" priority="1" numLanes="1" speed="2.78" allow="pedestrian" oneway="1" width="2.00"/>
    <type id="highway.primary" priority="12" numLanes="2" speed="27.78" disallow="tram rail_urban rail rail_electric rail_fast ship" oneway="0"/>
    <type id="highway.primary_link" priority="7" numLanes="1" speed="22.22" disallow="tram rail_urban rail rail_electric rail_fast ship" oneway="0"/>
    <type id="highway.raceway" priority="15" numLanes="2" speed="83.33" allow="vip" oneway="0"/>
    <type id="highway.residential" priority="3" numLanes="1" speed="13.89" disallow="tram rail_urban rail rail_electric rail_fast ship" oneway="0"/>
    <type id="highway.secondary" priority="11" numLanes="2" speed="27.78" disallow="tram rail_urban rail rail_electric rail_fast ship" oneway="0"/>
    <type id="highway.secondary_link" priority="6" numLanes="1" speed="22.22" disallow="tram rail_urban rail rail_electric rail_fast ship" oneway="0"/>
    <type id="highway.service" priority="1" numLanes="1" speed="5.56" allow="pedestrian delivery bicycle" oneway="0"/>
    <type id="highway.stairs" priority="1" numLanes="1" speed="1.39" allow="pedestrian" oneway="1" width="2.00"/>
    <type id="highway.step" priority="1" numLanes="1" speed="1.39" allow="pedestrian" oneway="1" width="2.00"/>
    <type id="highway.steps" priority="1" numLanes="1" speed="1.39" allow="pedestrian" oneway="1" width="2.00"/>
    <type id="highway.tertiary" priority="10" numLanes="1" speed="22.22" disallow="tram rail_urban rail rail_electric rail_fast ship" oneway="0"/>
    <type id="highway.tertiary_link" priority="5" numLanes="1" speed="22.22" disallow="tram rail_urban rail rail_electric rail_fast ship" oneway="0"/>
    <type id="highway.track" priority="1" numLanes="1" speed="5.56" disallow="tram rail_urban rail rail_electric rail_fast ship" oneway="0"/>
    <type id="highway.trunk" priority="13" numLanes="2" speed="27.78" disallow="pedestrian bicycle tram rail_urban rail rail_electric rail_fast ship" oneway="0"/>
    <type id="highway.trunk_link" priority="8" numLanes="1" speed="22.22" disallow="pedestrian bicycle tram rail_urban rail rail_electric rail_fast ship" oneway="0"/>
    <type id="highway.unclassified" priority="4" numLanes="1" speed="13.89" disallow="tram rail_urban rail rail_electric rail_fast ship" oneway="0"/>
    <type id="highway.unsurfaced" priority="1" numLanes="1" speed="8.33" disallow="tram rail_urban rail rail_electric rail_fast ship" oneway="0"/>
    <type id="railway.highspeed" priority="21" numLanes="1" speed="69.44" allow="rail_fast" oneway="1"/>
    <type id="railway.light_rail" priority="19" numLanes="1" speed="27.78" allow="rail_urban" oneway="1"/>
    <type id="railway.preserved" priority="16" numLanes="1" speed="27.78" allow="rail" oneway="1"/>
    <type id="railway.rail" priority="20" numLanes="1" speed="44.44" allow="rail" oneway="1"/>
    <type id="railway.subway" priority="18" numLanes="1" speed="27.78" allow="rail_urban" oneway="1"/>
    <type id="railway.tram" priority="17" numLanes="1" speed="13.89" allow="tram" oneway="1"/>

    <edge id=":1110152547_0" function="internal">
        <lane id=":1110152547_0_0" index="0" allow="bicycle" speed="8.33" length="4.23" width="1.00" shape="260.23,384.94 260.85,380.75"/>
    </edge>
    <edge id=":1110152547_1" function="internal">
        <lane id=":1110152547_1_0" index="0" allow="bicycle" speed="5.63" length="3.91" width="1.00" shape="260.23,384.94 260.47,384.10 260.96,383.35 261.70,382.68 262.68,382.09"/>
    </edge>
    <edge id=":1110152551_0" function="internal">
        <lane id=":1110152551_0_0" index="0" disallow="tram rail_urban rail rail_electric rail_fast ship" speed="9.93" length="4.71" shape="267.60,447.50 266.63,448.51 265.96,449.24 265.50,450.07 265.12,451.39"/>
    </edge>
    <edge id=":1110152551_1" function="internal">
        <lane id=":1110152551_1_0" index="0" disallow="tram rail_urban rail rail_electric rail_fast ship" speed="13.89" length="4.83" shape="265.10,446.46 264.05,451.15"/>
        <lane id=":1110152551_1_1" index="1" disallow="tram rail_urban rail rail_electric rail_fast ship" speed="13.89" length="4.83" shape="262.18,445.77 260.93,450.46"/>
    </edge>
    <edge id=":1110152552_0" function="internal">
        <lane id=":1110152552_0_0" index="0" allow="bicycle" speed="11.11" length="7.66" width="1.00" shape="252.73,452.55 253.12,450.34 253.10,448.79 252.85,447.22 252.55,444.96"/>
    </edge>
    <edge id=":1110152552_1" function="internal">
        <lane id=":1110152552_1_0" index="0" disallow="pedestrian bicycle tram rail_urban rail rail_electric rail_fast ship" speed="13.89" length="7.71" width="3.00" shape="253.70,452.78 254.95,445.23"/>
        <lane id=":1110152552_1_1" index="1" disallow="pedestrian bicycle tram rail_urban rail rail_electric rail_fast ship" speed="13.89" length="7.71" width="3.00" shape="256.62,453.47 257.89,445.81"/>
    </edge>
    <edge id=":1110176115_0" function="internal">
        <lane id=":1110176115_0_0" index="0" allow="bicycle" speed="8.33" length="0.23" width="1.00" shape="287.04,415.14 287.00,415.36"/>
    </edge>
    <edge id=":1573375651_0" function="internal">
        <lane id=":1573375651_0_0" index="0" disallow="tram rail_urban rail rail_electric rail_fast ship" speed="5.06" length="5.02" shape="174.06,343.56 173.69,342.23 172.99,341.34 171.96,340.88 170.59,340.85"/>
    </edge>
    <edge id=":1573375651_1" function="internal">
        <lane id=":1573375651_1_0" index="0" disallow="tram rail_urban rail rail_electric rail_fast ship" speed="6.86" length="10.18" shape="174.06,343.56 174.10,340.77 175.02,338.66 176.83,337.24 179.52,336.51"/>
    </edge>
    <edge id=":1573375651_2" function="internal">
        <lane id=":1573375651_2_0" index="0" allow="pedestrian delivery bicycle" speed="5.04" length="5.01" shape="179.92,339.68 178.59,340.04 177.71,340.74 177.25,341.78 177.24,343.15"/>
    </edge>
    <edge id=":1573375651_3" function="internal">
        <lane id=":1573375651_3_0" index="0" disallow="tram rail_urban rail rail_electric rail_fast ship" speed="13.89" length="9.40" shape="179.92,339.68 170.59,340.85"/>
    </edge>
    <edge id=":1573375651_4" function="internal">
        <lane id=":1573375651_4_0" index="0" disallow="tram rail_urban rail rail_electric rail_fast ship" speed="13.89" length="9.40" shape="170.19,337.67 179.52,336.51"/>
    </edge>
    <edge id=":1573375651_5" function="internal">
        <lane id=":1573375651_5_0" index="0" allow="pedestrian delivery bicycle" speed="6.87" length="5.07" shape="170.19,337.67 172.97,337.72 175.07,338.65"/>
    </edge>
    <edge id=":1573375651_6" function="internal">
        <lane id=":1573375651_6_0" index="0" allow="pedestrian delivery bicycle" speed="6.87" length="5.09" shape="175.07,338.65 176.49,340.46 177.24,343.15"/>
    </edge>
    <edge id=":2481705643_0" function="internal">
        <lane id=":2481705643_0_0" index="0" disallow="tram rail_urban rail rail_electric rail_fast ship" speed="13.89" length="0.31" shape="357.97,379.53 357.69,379.65"/>
    </edge>
    <edge id=":2481705643_1" function="internal">
        <lane id=":2481705643_1_0" index="0" disallow="tram rail_urban rail rail_electric rail_fast ship" speed="13.89" length="0.27" shape="356.45,376.70 356.69,376.60"/>
    </edge>
    <edge id=":2514484897_0" function="internal">
        <lane id=":2514484897_0_0" index="0" allow="bicycle" speed="8.33" length="0.10" width="1.00" shape="348.44,241.94 348.44,241.94"/>
    </edge>
    <edge id=":2528027752_0" function="internal">
        <lane id=":2528027752_0_0" index="0" allow="bicycle" speed="3.91" length="3.56" width="1.00" shape="288.34,391.72 287.31,392.04 286.65,392.56 286.38,393.26 286.48,394.15"/>
    </edge>
    <edge id=":2528027752_1" function="internal">
        <lane id=":2528027752_1_0" index="0" allow="bicycle" speed="8.33" length="5.08" width="1.00" shape="288.34,391.72 286.86,391.98 285.83,392.05 284.79,391.94 283.32,391.64"/>
    </edge>
    <edge id=":2528027752_2" function="internal">
        <lane id=":2528027752_2_0" index="0" allow="bicycle" speed="4.55" length="4.46" width="1.00" shape="288.34,391.72 287.02,391.81 286.00,391.53 285.28,390.87 284.86,389.85"/>
    </edge>
    <edge id=":2528027752_3" function="internal">
        <lane id=":2528027752_3_0" index="0" allow="bicycle" speed="8.33" length="4.57" width="1.00" shape="285.83,389.62 286.48,394.15"/>
    </edge>
    <edge id=":2528027752_4" function="internal">
        <lane id=":2528027752_4_0" index="0" allow="bicycle" speed="3.82" length="4.19" width="1.00" shape="285.83,389.62 285.90,390.75 285.51,391.46 284.65,391.76 283.32,391.64"/>
    </edge>
    <edge id=":2528027752_5" function="internal">
        <lane id=":2528027752_5_0" index="0" allow="bicycle" speed="2.04" length="1.46" width="1.00" shape="285.83,389.62 285.67,390.04 285.45,390.22 285.18,390.16 284.86,389.85"/>
    </edge>
    <edge id=":2528027755_0" function="internal">
        <lane id=":2528027755_0_0" index="0" disallow="pedestrian bicycle tram rail_urban rail rail_electric rail_fast ship" speed="13.89" length="0.95" shape="320.33,388.77 320.05,388.79 319.86,388.78 319.67,388.76 319.39,388.72"/>
    </edge>
    <edge id=":2528027755_1" function="internal">
        <lane id=":2528027755_1_0" index="0" disallow="tram rail_urban rail rail_electric rail_fast ship" speed="13.89" length="0.32" shape="319.82,385.57 319.91,385.58 319.97,385.58 320.04,385.58 320.13,385.58"/>
    </edge>
    <edge id=":2586416774_0" function="internal">
        <lane id=":2586416774_0_0" index="0" disallow="tram rail_urban rail rail_electric rail_fast ship" speed="13.89" length="0.24" width="3.00" shape="242.68,497.34 242.75,497.05"/>
        <lane id=":2586416774_0_1" index="1" disallow="tram rail_urban rail rail_electric rail_fast ship" speed="13.89" length="0.24" width="3.00" shape="245.61,497.98 245.65,497.79"/>
    </edge>
    <edge id=":43852349_0" function="internal">
        <lane id=":43852349_0_0" index="0" allow="bicycle" speed="8.33" length="0.30" width="1.00" shape="480.53,193.82 480.26,193.96"/>
    </edge>
    <edge id=":43852349_1" function="internal">
        <lane id=":43852349_1_0" index="0" allow="bicycle" speed="8.33" length="0.28" width="1.00" shape="479.80,193.07 480.05,192.94"/>
    </edge>
    <edge id=":43854426_0" function="internal">
        <lane id=":43854426_0_0" index="0" allow="bicycle" speed="8.33" length="0.10" width="1.00" shape="290.10,280.75 290.10,280.75"/>
    </edge>
    <edge id=":43855949_0" function="internal">
        <lane id=":43855949_0_0" index="0" disallow="tram rail_urban rail rail_electric rail_fast ship" speed="13.89" length="11.01" shape="213.32,335.48 202.40,336.86"/>
    </edge>
    <edge id=":43855949_1" function="internal">
        <lane id=":43855949_1_0" index="0" disallow="tram rail_urban rail rail_electric rail_fast ship" speed="7.66" length="6.25" shape="213.32,335.48 209.54,335.49 207.22,334.64"/>
    </edge>
    <edge id=":43855949_7" function="internal">
        <lane id=":43855949_7_0" index="0" disallow="tram rail_urban rail rail_electric rail_fast ship" speed="7.66" length="6.64" shape="207.22,334.64 206.71,334.46 204.82,332.37 203.87,329.23"/>
    </edge>
    <edge id=":43855949_2" function="internal">
        <lane id=":43855949_2_0" index="0" disallow="pedestrian bicycle tram rail_urban rail rail_electric rail_fast ship" speed="6.08" length="7.72" shape="207.05,328.89 207.62,330.64 208.79,331.79 210.56,332.35 212.93,332.32"/>
    </edge>
    <edge id=":43855949_3" function="internal">
        <lane id=":43855949_3_0" index="0" disallow="tram rail_urban rail rail_electric rail_fast ship" speed="6.95" length="10.49" shape="207.05,328.89 207.12,332.11 206.36,334.52 204.79,336.10 202.40,336.86"/>
    </edge>
    <edge id=":43855949_4" function="internal">
        <lane id=":43855949_4_0" index="0" disallow="tram rail_urban rail rail_electric rail_fast ship" speed="5.19" length="5.40" shape="202.00,333.69 203.02,333.29 203.67,332.42 203.96,331.07 203.87,329.23"/>
    </edge>
    <edge id=":43855949_5" function="internal">
        <lane id=":43855949_5_0" index="0" allow="bicycle" speed="13.89" length="11.13" width="1.00" shape="201.87,332.59 205.03,332.40 207.49,332.41 209.87,332.13 212.78,331.07"/>
    </edge>
    <edge id=":43855949_6" function="internal">
        <lane id=":43855949_6_0" index="0" disallow="pedestrian bicycle tram rail_urban rail rail_electric rail_fast ship" speed="13.89" length="11.01" shape="202.00,333.69 212.93,332.32"/>
    </edge>
    <edge id=":43856264_0" function="internal">
        <lane id=":43856264_0_0" index="0" disallow="tram rail_urban rail rail_electric rail_fast ship" speed="6.41" length="9.05" shape="384.95,373.92 383.73,371.74 382.12,370.51 380.12,370.22 377.71,370.89"/>
    </edge>
    <edge id=":43856264_1" function="internal">
        <lane id=":43856264_1_0" index="0" disallow="tram rail_urban rail rail_electric rail_fast ship" speed="7.91" length="14.39" shape="384.95,373.92 384.07,370.05 384.68,366.88 386.76,364.42 390.32,362.67"/>
    </edge>
    <edge id=":43856264_2" function="internal">
        <lane id=":43856264_2_0" index="0" disallow="tram rail_urban rail rail_electric rail_fast ship" speed="6.40" length="9.04" shape="391.31,365.72 389.07,366.82 387.77,368.36 387.39,370.35 387.94,372.78"/>
    </edge>
    <edge id=":43856264_3" function="internal">
        <lane id=":43856264_3_0" index="0" disallow="tram rail_urban rail rail_electric rail_fast ship" speed="13.89" length="14.55" shape="391.31,365.72 387.83,366.89 384.45,368.13 381.10,369.45 377.71,370.89"/>
    </edge>
    <edge id=":43856264_4" function="internal">
        <lane id=":43856264_4_0" index="0" disallow="tram rail_urban rail rail_electric rail_fast ship" speed="13.89" length="14.87" shape="376.43,367.95 379.87,366.50 383.31,365.14 386.79,363.87 390.32,362.67"/>
    </edge>
    <edge id=":43856264_5" function="internal">
        <lane id=":43856264_5_0" index="0" disallow="tram rail_urban rail rail_electric rail_fast ship" speed="7.92" length="6.16" shape="376.43,367.95 380.25,366.90 382.43,367.21"/>
    </edge>
    <edge id=":43856264_6" function="internal">
        <lane id=":43856264_6_0" index="0" disallow="tram rail_urban rail rail_electric rail_fast ship" speed="7.92" length="8.22" shape="382.43,367.21 383.44,367.35 386.01,369.31 387.94,372.78"/>
    </edge>
    <edge id=":43858555_0" function="internal">
        <lane id=":43858555_0_0" index="0" disallow="tram rail_urban rail rail_electric rail_fast ship" speed="6.46" length="8.91" width="3.00" shape="229.41,531.40 231.80,531.61 233.69,530.97 235.08,529.49 235.97,527.17"/>
    </edge>
    <edge id=":43858555_1" function="internal">
        <lane id=":43858555_1_0" index="0" disallow="tram rail_urban rail rail_electric rail_fast ship" speed="6.59" length="9.03" shape="232.97,541.23 233.11,538.78 232.44,536.84 230.96,535.42 228.66,534.51"/>
    </edge>
    <edge id=":43858555_2" function="internal">
        <lane id=":43858555_2_0" index="0" disallow="tram rail_urban rail rail_electric rail_fast ship" speed="13.89" length="14.37" width="3.00" shape="232.97,541.23 235.97,527.17"/>
        <lane id=":43858555_2_1" index="1" disallow="tram rail_urban rail rail_electric rail_fast ship" speed="13.89" length="14.37" width="3.00" shape="236.11,541.86 238.90,527.78"/>
    </edge>
    <edge id=":6795168478_0" function="internal">
        <lane id=":6795168478_0_0" index="0" allow="bicycle" speed="8.33" length="0.29" width="1.00" shape="265.20,353.04 265.24,352.74"/>
    </edge>
    <edge id=":6795168483_0" function="internal">
        <lane id=":6795168483_0_0" index="0" allow="bicycle" speed="8.33" length="0.10" width="1.00" shape="283.22,391.62 283.22,391.62"/>
    </edge>
    <edge id=":967058159_0" function="internal">
        <lane id=":967058159_0_0" index="0" allow="bicycle" speed="8.33" length="3.05" width="1.00" shape="402.62,210.34 403.38,209.86 403.83,209.43 404.29,209.00 405.05,208.51"/>
    </edge>
    <edge id=":cluster_1110148367_2528032385_6795168480_6795168482_6795168484_gneJ113_gneJ20_gneJ23_gneJ6_gneJ64_gneJ7_gneJ71_gneJ75_gneJ77_gneJ84_gneJ9_0" function="internal">
        <lane id=":cluster_1110148367_2528032385_6795168480_6795168482_6795168484_gneJ113_gneJ20_gneJ23_gneJ6_gneJ64_gneJ7_gneJ71_gneJ75_gneJ77_gneJ84_gneJ9_0_0" index="0" allow="bicycle" speed="8.33" length="17.55" width="1.00" shape="284.42,387.91 284.48,383.90 285.76,379.47 287.38,375.02 288.45,370.97"/>
    </edge>
    <edge id=":cluster_1110148367_2528032385_6795168480_6795168482_6795168484_gneJ113_gneJ20_gneJ23_gneJ6_gneJ64_gneJ7_gneJ71_gneJ75_gneJ77_gneJ84_gneJ9_1" function="internal">
        <lane id=":cluster_1110148367_2528032385_6795168480_6795168482_6795168484_gneJ113_gneJ20_gneJ23_gneJ6_gneJ64_gneJ7_gneJ71_gneJ75_gneJ77_gneJ84_gneJ9_1_0" index="0" disallow="pedestrian bicycle tram rail_urban rail rail_electric rail_fast ship" speed="10.63" length="23.81" width="3.00" shape="294.77,385.82 288.24,386.07 283.18,388.22 279.57,392.28 277.43,398.26"/>
    </edge>
    <edge id=":cluster_1110148367_2528032385_6795168480_6795168482_6795168484_gneJ113_gneJ20_gneJ23_gneJ6_gneJ64_gneJ7_gneJ71_gneJ75_gneJ77_gneJ84_gneJ9_2" function="internal">
        <lane id=":cluster_1110148367_2528032385_6795168480_6795168482_6795168484_gneJ113_gneJ20_gneJ23_gneJ6_gneJ64_gneJ7_gneJ71_gneJ75_gneJ77_gneJ84_gneJ9_2_0" index="0" speed="12.49" length="37.09" shape="294.77,385.82 281.06,383.66 271.51,380.26 266.14,375.63 264.93,369.77"/>
    </edge>
    <edge id=":cluster_1110148367_2528032385_6795168480_6795168482_6795168484_gneJ113_gneJ20_gneJ23_gneJ6_gneJ64_gneJ7_gneJ71_gneJ75_gneJ77_gneJ84_gneJ9_3" function="internal">
        <lane id=":cluster_1110148367_2528032385_6795168480_6795168482_6795168484_gneJ113_gneJ20_gneJ23_gneJ6_gneJ64_gneJ7_gneJ71_gneJ75_gneJ77_gneJ84_gneJ9_3_0" index="0" disallow="tram rail_urban rail rail_electric rail_fast ship" speed="11.97" length="34.32" width="3.00" shape="294.77,385.82 282.29,383.79 273.64,380.51 268.84,376.00 267.87,370.24"/>
    </edge>
    <edge id=":cluster_1110148367_2528032385_6795168480_6795168482_6795168484_gneJ113_gneJ20_gneJ23_gneJ6_gneJ64_gneJ7_gneJ71_gneJ75_gneJ77_gneJ84_gneJ9_4" function="internal">
        <lane id=":cluster_1110148367_2528032385_6795168480_6795168482_6795168484_gneJ113_gneJ20_gneJ23_gneJ6_gneJ64_gneJ7_gneJ71_gneJ75_gneJ77_gneJ84_gneJ9_4_0" index="0" disallow="tram rail_urban rail rail_electric rail_fast ship" speed="11.48" length="31.50" width="3.00" shape="294.77,385.82 283.59,383.93 275.88,380.78 271.62,376.38 270.83,370.72"/>
    </edge>
    <edge id=":cluster_1110148367_2528032385_6795168480_6795168482_6795168484_gneJ113_gneJ20_gneJ23_gneJ6_gneJ64_gneJ7_gneJ71_gneJ75_gneJ77_gneJ84_gneJ9_5" function="internal">
        <lane id=":cluster_1110148367_2528032385_6795168480_6795168482_6795168484_gneJ113_gneJ20_gneJ23_gneJ6_gneJ64_gneJ7_gneJ71_gneJ75_gneJ77_gneJ84_gneJ9_5_0" index="0" allow="bicycle" speed="5.41" length="5.37" width="1.50" shape="289.45,371.04 289.39,372.64 289.71,373.93 290.39,374.90 291.44,375.56"/>
    </edge>
    <edge id=":cluster_1110148367_2528032385_6795168480_6795168482_6795168484_gneJ113_gneJ20_gneJ23_gneJ6_gneJ64_gneJ7_gneJ71_gneJ75_gneJ77_gneJ84_gneJ9_6" function="internal">
        <lane id=":cluster_1110148367_2528032385_6795168480_6795168482_6795168484_gneJ113_gneJ20_gneJ23_gneJ6_gneJ64_gneJ7_gneJ71_gneJ75_gneJ77_gneJ84_gneJ9_6_0" index="0" allow="bicycle" speed="8.33" length="17.40" width="1.00" shape="289.45,371.04 288.38,375.06 286.77,379.46 285.49,383.85 285.42,387.83"/>
    </edge>
    <edge id=":cluster_1110148367_2528032385_6795168480_6795168482_6795168484_gneJ113_gneJ20_gneJ23_gneJ6_gneJ64_gneJ7_gneJ71_gneJ75_gneJ77_gneJ84_gneJ9_7" function="internal">
        <lane id=":cluster_1110148367_2528032385_6795168480_6795168482_6795168484_gneJ113_gneJ20_gneJ23_gneJ6_gneJ64_gneJ7_gneJ71_gneJ75_gneJ77_gneJ84_gneJ9_7_0" index="0" disallow="tram rail_urban rail rail_electric rail_fast ship" speed="10.39" length="21.98" shape="284.79,362.79 284.75,369.86 286.13,375.26 288.93,378.98 293.15,381.01"/>
    </edge>
    <edge id=":cluster_1110148367_2528032385_6795168480_6795168482_6795168484_gneJ113_gneJ20_gneJ23_gneJ6_gneJ64_gneJ7_gneJ71_gneJ75_gneJ77_gneJ84_gneJ9_8" function="internal">
        <lane id=":cluster_1110148367_2528032385_6795168480_6795168482_6795168484_gneJ113_gneJ20_gneJ23_gneJ6_gneJ64_gneJ7_gneJ71_gneJ75_gneJ77_gneJ84_gneJ9_8_0" index="0" disallow="pedestrian bicycle tram rail_urban rail rail_electric rail_fast ship" speed="13.89" length="31.40" width="3.00" shape="281.60,367.15 280.96,374.84 280.03,382.77 278.84,390.66 277.43,398.26"/>
        <lane id=":cluster_1110148367_2528032385_6795168480_6795168482_6795168484_gneJ113_gneJ20_gneJ23_gneJ6_gneJ64_gneJ7_gneJ71_gneJ75_gneJ77_gneJ84_gneJ9_8_1" index="1" disallow="pedestrian bicycle tram rail_urban rail rail_electric rail_fast ship" speed="13.89" length="31.40" width="3.00" shape="278.63,366.67 277.99,374.36 277.06,382.29 275.87,390.18 274.47,397.77"/>
    </edge>
    <edge id=":cluster_1110148367_2528032385_6795168480_6795168482_6795168484_gneJ113_gneJ20_gneJ23_gneJ6_gneJ64_gneJ7_gneJ71_gneJ75_gneJ77_gneJ84_gneJ9_10" function="internal">
        <lane id=":cluster_1110148367_2528032385_6795168480_6795168482_6795168484_gneJ113_gneJ20_gneJ23_gneJ6_gneJ64_gneJ7_gneJ71_gneJ75_gneJ77_gneJ84_gneJ9_10_0" index="0" allow="bicycle" speed="11.11" length="31.17" width="1.50" shape="263.73,381.56 269.77,379.99 279.05,378.82 288.39,378.35 294.59,378.87"/>
    </edge>
    <edge id=":cluster_1110148367_2528032385_6795168480_6795168482_6795168484_gneJ113_gneJ20_gneJ23_gneJ6_gneJ64_gneJ7_gneJ71_gneJ75_gneJ77_gneJ84_gneJ9_11" function="internal">
        <lane id=":cluster_1110148367_2528032385_6795168480_6795168482_6795168484_gneJ113_gneJ20_gneJ23_gneJ6_gneJ64_gneJ7_gneJ71_gneJ75_gneJ77_gneJ84_gneJ9_11_0" index="0" speed="13.89" length="26.19" shape="264.09,395.92 264.80,388.37 264.86,381.00 264.74,374.56 264.93,369.77"/>
    </edge>
    <edge id=":cluster_1110148367_2528032385_6795168480_6795168482_6795168484_gneJ113_gneJ20_gneJ23_gneJ6_gneJ64_gneJ7_gneJ71_gneJ75_gneJ77_gneJ84_gneJ9_12" function="internal">
        <lane id=":cluster_1110148367_2528032385_6795168480_6795168482_6795168484_gneJ113_gneJ20_gneJ23_gneJ6_gneJ64_gneJ7_gneJ71_gneJ75_gneJ77_gneJ84_gneJ9_12_0" index="0" disallow="tram rail_urban rail rail_electric rail_fast ship" speed="13.89" length="25.95" width="3.00" shape="264.09,395.92 267.87,370.24"/>
        <lane id=":cluster_1110148367_2528032385_6795168480_6795168482_6795168484_gneJ113_gneJ20_gneJ23_gneJ6_gneJ64_gneJ7_gneJ71_gneJ75_gneJ77_gneJ84_gneJ9_12_1" index="1" disallow="tram rail_urban rail rail_electric rail_fast ship" speed="13.89" length="25.95" width="3.00" shape="267.05,396.40 270.83,370.72"/>
    </edge>
    <edge id=":cluster_1110148367_2528032385_6795168480_6795168482_6795168484_gneJ113_gneJ20_gneJ23_gneJ6_gneJ64_gneJ7_gneJ71_gneJ75_gneJ77_gneJ84_gneJ9_14" function="internal">
        <lane id=":cluster_1110148367_2528032385_6795168480_6795168482_6795168484_gneJ113_gneJ20_gneJ23_gneJ6_gneJ64_gneJ7_gneJ71_gneJ75_gneJ77_gneJ84_gneJ9_14_0" index="0" disallow="tram rail_urban rail rail_electric rail_fast ship" speed="11.57" length="32.74" shape="269.93,396.93 272.60,388.15 277.35,382.57 284.20,380.19 293.15,381.01"/>
    </edge>
    <edge id=":cluster_1110148367_2528032385_6795168480_6795168482_6795168484_gneJ113_gneJ20_gneJ23_gneJ6_gneJ64_gneJ7_gneJ71_gneJ75_gneJ77_gneJ84_gneJ9_15" function="internal">
        <lane id=":cluster_1110148367_2528032385_6795168480_6795168482_6795168484_gneJ113_gneJ20_gneJ23_gneJ6_gneJ64_gneJ7_gneJ71_gneJ75_gneJ77_gneJ84_gneJ9_15_0" index="0" allow="bicycle" speed="11.11" length="17.73" width="1.50" shape="280.31,391.42 276.16,390.98 271.53,390.28 266.91,389.47 262.80,388.72"/>
    </edge>
    <edge id=":cluster_2528027750_gneJ85_0" function="internal">
        <lane id=":cluster_2528027750_gneJ85_0_0" index="0" allow="bicycle" speed="4.15" length="3.48" width="1.00" shape="261.79,388.53 260.93,388.23 260.36,387.70 260.08,386.95 260.09,385.96"/>
    </edge>
    <edge id=":cluster_2528027750_gneJ85_1" function="internal">
        <lane id=":cluster_2528027750_gneJ85_1_0" index="0" allow="bicycle" speed="8.33" length="4.50" width="1.00" shape="259.47,390.41 260.09,385.96"/>
    </edge>
    <edge id=":cluster_43855321_6795168477_6795168479_gneJ104_gneJ107_gneJ13_gneJ14_gneJ15_gneJ16_gneJ59_gneJ63_gneJ70_gneJ72_0" function="internal">
        <lane id=":cluster_43855321_6795168477_6795168479_gneJ104_gneJ107_gneJ13_gneJ14_gneJ15_gneJ16_gneJ59_gneJ63_gneJ70_gneJ72_0_0" index="0" disallow="tram rail_urban rail rail_electric rail_fast ship" speed="13.89" length="27.10" shape="288.71,333.14 261.68,331.13"/>
    </edge>
    <edge id=":cluster_43855321_6795168477_6795168479_gneJ104_gneJ107_gneJ13_gneJ14_gneJ15_gneJ16_gneJ59_gneJ63_gneJ70_gneJ72_1" function="internal">
        <lane id=":cluster_43855321_6795168477_6795168479_gneJ104_gneJ107_gneJ13_gneJ14_gneJ15_gneJ16_gneJ59_gneJ63_gneJ70_gneJ72_1_0" index="0" speed="13.89" length="18.68" width="3.00" shape="288.79,322.53 287.44,328.42 287.34,333.22 287.66,337.30 287.55,341.04"/>
    </edge>
    <edge id=":cluster_43855321_6795168477_6795168479_gneJ104_gneJ107_gneJ13_gneJ14_gneJ15_gneJ16_gneJ59_gneJ63_gneJ70_gneJ72_2" function="internal">
        <lane id=":cluster_43855321_6795168477_6795168479_gneJ104_gneJ107_gneJ13_gneJ14_gneJ15_gneJ16_gneJ59_gneJ63_gneJ70_gneJ72_2_0" index="0" disallow="tram rail_urban rail rail_electric rail_fast ship" speed="13.89" length="18.82" width="3.00" shape="288.79,322.53 287.07,327.75 286.13,331.40 285.47,335.11 284.64,340.56"/>
        <lane id=":cluster_43855321_6795168477_6795168479_gneJ104_gneJ107_gneJ13_gneJ14_gneJ15_gneJ16_gneJ59_gneJ63_gneJ70_gneJ72_2_1" index="1" disallow="tram rail_urban rail rail_electric rail_fast ship" speed="13.89" length="18.82" width="3.00" shape="285.77,321.46 284.03,326.85 283.12,330.61 282.51,334.46 281.68,340.07"/>
    </edge>
    <edge id=":cluster_43855321_6795168477_6795168479_gneJ104_gneJ107_gneJ13_gneJ14_gneJ15_gneJ16_gneJ59_gneJ63_gneJ70_gneJ72_4" function="internal">
        <lane id=":cluster_43855321_6795168477_6795168479_gneJ104_gneJ107_gneJ13_gneJ14_gneJ15_gneJ16_gneJ59_gneJ63_gneJ70_gneJ72_4_0" index="0" disallow="tram rail_urban rail rail_electric rail_fast ship" speed="13.89" length="30.71" shape="285.02,313.21 280.81,320.61 275.51,325.92 269.14,329.15 261.67,330.28"/>
    </edge>
    <edge id=":cluster_43855321_6795168477_6795168479_gneJ104_gneJ107_gneJ13_gneJ14_gneJ15_gneJ16_gneJ59_gneJ63_gneJ70_gneJ72_5" function="internal">
        <lane id=":cluster_43855321_6795168477_6795168479_gneJ104_gneJ107_gneJ13_gneJ14_gneJ15_gneJ16_gneJ59_gneJ63_gneJ70_gneJ72_5_0" index="0" allow="bicycle" speed="7.82" length="10.32" width="1.00" shape="263.88,323.52 267.04,322.93 269.47,321.87 271.15,320.35 272.10,318.37"/>
    </edge>